!  This chemkin file was generated by RMG - Reaction Mechanism Generator (http://rmg.mit.edu)
!  The java code was compiled by ant at:
!    2011-01-25T12:41:27
!  The git repository was on the branch:
!    master
!  And at the commit with the hash:
!    862689cb337223fdc13f84248af1a33bb68ff395
!
!  For details visit:
!   http://github.com/GreenGroup/RMG-Java/tree/862689
!To see changes since then visit:
!   http://github.com/GreenGroup/RMG-Java/compare/862689...master

ELEMENTS H C O N Ne Ar He Si S END
SPECIES
	Ar
	N2
	C2H6(1)
	CH3J(2)
	C2H5J(3)
	CH4(5)
	HJ(4)
	C2H4(7)
	H2(10)
	C3H7J(12)
	C2H3J(11)
	C2H2(25)
	C4H7J(24)
	C4H7J(59)
	C4H6(28)
END
THERMO ALL
   300.000  1000.000  5000.000
! The first four sets of polynomial coefficients (Ar, N2, Ne, He) are from         
! THIRD MILLENIUM IDEAL GAS AND CONDENSED PHASE THERMOCHEMICAL DATABASE FOR     
! COMBUSTION WITH UPDATES FROM ACTIVE THERMOCHENICAL TABLES                     
! Authors: Alexander Burcat and Branko Ruscic                                   
!                                                                               
! The rest of the species are estimated by RMG (http://rmg.mit.edu/)            
Ar                L 6/88Ar  1               G   200.000  6000.000 1000.        1
 0.25000000E+01 0.00000000E+00 0.00000000E+00 0.00000000E+00 0.00000000E+00    2
-0.74537500E+03 0.43796749E+01 0.25000000E+01 0.00000000E+00 0.00000000E+00    3
 0.00000000E+00 0.00000000E+00-0.74537500E+03 0.43796749E+01                   4
N2                G 8/02N   2               G   200.000  6000.000 1000.        1
 2.95257637E+00 1.39690040E-03-4.92631603E-07 7.86010195E-11-4.60755204E-15    2
-9.23948688E+02 5.87188762E+00 3.53100528E+00-1.23660988E-04-5.02999433E-07    3
 2.43530612E-09-1.40881235E-12-1.04697628E+03 2.96747038E+00                   4
Ne                L10/90Ne  1               G    200.0   6000.00  1000.0       1
 0.25000000E+01 0.00000000E+00 0.00000000E+00 0.00000000E+00 0.00000000E+00    2
-0.74537500E+03 0.33553227E+01 0.25000000E+01 0.00000000E+00 0.00000000E+00    3
 0.00000000E+00 0.00000000E+00-0.74537498E+03 0.33553227E+01                   4
He REF ELEMENT          He  1               G   200.000  6000.000 1000.        1
 2.50000000E+00 0.00000000E+00 0.00000000E+00 0.00000000E+00 0.00000000E+00    2
-7.45375000E+02 9.28723974E-01 2.50000000E+00 0.00000000E+00 0.00000000E+00    3
 0.00000000E+00 0.00000000E+00-7.45375000E+02 9.28723974E-01 0.00000000E+00    4

!Estimated by RMG using Group Additivity
C2H6(1)                 C   2H   6          G     1.000  6000.000   995.043    1
 4.85974353E+00 1.40318476E-02-4.67239104E-06 7.15783877E-10-4.13562973E-14    2
-1.29312919E+04-5.41029352E+00 3.81951268E+00-4.62189599E-03 5.78713622E-05    3
-6.42512682E-08 2.20759198E-11-1.15937992E+04 5.28359863E+00                   4

!Estimated by RMG using Group Additivity
CH3J(2)                 C   1H   3          G     1.000  6000.000   995.043    1
 4.09369738E+00 3.70663607E-03-1.11169717E-06 1.61150833E-10-8.99672583E-15    2
 1.60153864E+04-1.33623864E+00 3.94354223E+00-3.06983615E-04 1.18990784E-05    3
-1.32192644E-08 4.52441835E-12 1.62738470E+04 5.36012899E-01                   4

!Estimated by RMG using Group Additivity
C2H5J(3)                C   2H   5          G     1.000  6000.000   995.043    1
 4.27880081E+00 1.19981329E-02-3.55250933E-06 4.87152377E-10-2.56198285E-14    2
 1.21442406E+04 1.24707240E+00 3.60910266E+00-2.37331109E-03 4.38349400E-05    3
-4.84958919E-08 1.66111194E-11 1.31222575E+04 8.71939931E+00                   4

!Estimated by RMG using Group Additivity
CH4(5)                  C   1H   4          G     1.000  6000.000   995.043    1
 2.02228410E+00 9.28229267E-03-3.16423748E-06 4.94658495E-10-2.90486314E-14    2
-1.01179484E+04 7.96505034E+00 4.11128886E+00-6.44087023E-03 3.15810191E-05    3
-3.01829315E-08 9.53744383E-12-1.01710249E+04-2.80508476E-01                   4

!Primary Thermo Library: RMG-minimal (Species ID: H)
HJ(4)                   C   0H   1          G     1.000  6000.000   995.043    1
 2.50000000E+00-6.87345386E-16 3.56277770E-19-7.24156912E-23 4.69080347E-27    2
 2.54739285E+04-4.46185831E-01 2.50000000E+00-4.67872854E-15 1.18605935E-17    3
-1.14566698E-20 3.78863748E-24 2.54739285E+04-4.46185831E-01                   4

!Estimated by RMG using Group Additivity
C2H4(7)                 C   2H   4          G     1.000  6000.000   995.043    1
 4.84788803E+00 9.04790364E-03-2.91089165E-06 4.34058759E-10-2.45509522E-14    2
 3.91107645E+03-5.09518204E+00 3.80813213E+00-7.07638893E-03 5.20038258E-05    3
-5.68649861E-08 1.95238275E-11 5.12315836E+03 4.96671815E+00                   4

!Primary Thermo Library: RMG-minimal (Species ID: H2)
H2(10)                  C   0H   2          G     1.000  6000.000   995.043    1
 3.22603164E+00 3.77023933E-04 9.72683741E-08-4.00445607E-11 3.37974980E-15    2
-9.62530510E+02-2.73988629E+00 3.41068059E+00 4.17441328E-05-1.08412739E-08    3
 4.43448556E-10-2.21372917E-13-1.01942575E+03-3.73103762E+00                   4

!Estimated by RMG using Group Additivity
C3H7J(12)               C   3H   7          G     1.000  6000.000   995.043    1
 6.95424497E+00 1.72816380E-02-5.92405012E-06 9.28115810E-10-5.45380465E-14    2
 8.39537670E+03-1.13350131E+01 3.74143322E+00 6.63085674E-03 4.56568982E-05    3
-5.74319432E-08 2.05881685E-11 1.02014031E+04 1.00112877E+01                   4

!Estimated by RMG using Group Additivity
C2H3J(11)               C   2H   3          G     1.000  6000.000   995.043    1
 5.05449870E+00 6.23078264E-03-1.90688551E-06 2.72391283E-10-1.48718523E-14    2
 3.38329599E+04-3.10283582E+00 3.78351527E+00-3.83763331E-03 3.61509155E-05    3
-4.05551587E-08 1.40942783E-11 3.48372751E+04 6.79821787E+00                   4

!Estimated by RMG using Group Additivity
C2H2(25)                C   2H   2          G     1.000  6000.000   995.043    1
 5.56008597E+00 3.14943368E-03-7.19896383E-07 7.29926239E-11-2.62573228E-15    2
 2.50544010E+04-9.02915341E+00 3.17085689E+00 5.97827090E-03 5.22987849E-06    3
-1.07566558E-08 4.43764049E-12 2.58653121E+04 4.17114799E+00                   4

!Estimated by RMG using Group Additivity
C4H7J(24)               C   4H   7          G     1.000  6000.000   995.043    1
 9.06813694E+00 1.79475749E-02-6.17736805E-06 9.71267356E-10-5.72193042E-14    2
 2.02377598E+04-2.01308330E+01 3.60805455E+00 1.19094581E-02 4.51149543E-05    3
-6.16607785E-08 2.27807069E-11 2.27098861E+04 1.31459027E+01                   4

!Estimated by RMG using Group Additivity
C4H7J(59)               C   4H   7          G     1.000  6000.000   995.043    1
 9.30587932E+00 1.81664497E-02-6.26407184E-06 9.84132901E-10-5.79132700E-14    2
 1.20666362E+04-2.48404295E+01 3.57920944E+00 1.22166230E-02 4.63775625E-05    3
-6.35451306E-08 2.35062160E-11 1.46404979E+04 9.96573631E+00                   4

!Estimated by RMG using Group Additivity
C4H6(28)                C   4H   6          G     1.000  6000.000   995.043    1
 1.10283952E+01 1.28920777E-02-3.95448678E-06 5.66446112E-10-3.10025524E-14    2
 8.15102140E+03-3.56754561E+01 3.22147962E+00 1.05227964E-02 5.04981450E-05    3
-7.00058205E-08 2.62648333E-11 1.13755999E+04 1.03459015E+01                   4

END

REACTIONS	KCAL/MOL	MOLES
CH3J(2)+CH3J(2)=C2H6(1)                              8.260e+17 	 -1.40 	 1.00 	!R_Recombination exact:   [ C_methyl , C_methyl ]
C2H6(1)+CH3J(2)=C2H5J(3)+CH4(5)                      1.668e+06 	 1.90 	 11.05 	!H_Abstraction estimate: (Average:)  [ InChI=1/C2H6/c1-2/h1-2H3 , C_methyl ]
C2H5J(3)+HJ(4)=C2H6(1)                               1.000e+14 	 0.00 	 0.00 	!R_Recombination exact:   [ C_rad/H2/Cs , H_rad ]
HJ(4)+CH3J(2)=CH4(5)                                 1.930e+14 	 0.00 	 0.27 	!R_Recombination exact:   [ H_rad , C_methyl ]
C2H4(7)+HJ(4)=C2H5J(3)                               1.548e+14 	 0.00 	 2.80 	!R_Addition_MultipleBond exact:   [ Cd/H2_Cd/H2 , H_rad ]
CH3J(2)+C2H5J(3)=CH4(5)+C2H4(7)                      6.570e+14 	 -0.68 	 0.00 	!Disproportionation exact:   [ C_methyl , Cmethyl_Csrad ]
C2H5J(3)+C2H5J(3)=C2H6(1)+C2H4(7)                    6.900e+13 	 -0.35 	 0.00 	!Disproportionation exact:   [ C_rad/H2/Cs , Cmethyl_Csrad ]
C2H6(1)+HJ(4)=C2H5J(3)+H2(10)                        3.768e+08 	 1.75 	 7.51 	!H_Abstraction estimate: (Average:)  [ InChI=1/C2H6/c1-2/h1-2H3 , H_rad ]
CH4(5)+HJ(4)=CH3J(2)+H2(10)                          1.224e+08 	 1.87 	 10.59 	!H_Abstraction exact:   [ C_methane , H_rad ]
HJ(4)+HJ(4)=H2(10)                                   1.090e+11 	 0.00 	 1.50 	!R_Recombination exact:   [ H_rad , H_rad ]
HJ(4)+C2H5J(3)=H2(10)+C2H4(7)                        1.083e+13 	 0.00 	 0.00 	!Disproportionation exact:   [ H_rad , Cmethyl_Csrad ]
C2H4(7)+CH3J(2)=C3H7J(12)                            1.938e+13 	 0.00 	 9.00 	!R_Addition_MultipleBond exact:   [ Cd/H2_Cd/H2 , C_methyl ]
C2H3J(11)+CH4(5)=C2H4(7)+CH3J(2)                     6.360e+14 	 0.00 	 13.70 	!H_Abstraction estimate: (Average:)  [ InChI=1/C2H3/c1-2/h1H,2H2 , C_methane ]
C2H3J(11)+C2H6(1)=C2H4(7)+C2H5J(3)                   9.303e+04 	 2.44 	 5.50 	!H_Abstraction estimate: (Average:)  [ InChI=1/C2H3/c1-2/h1H,2H2 , InChI=1/C2H6/c1-2/h1-2H3 ]
C2H3J(11)+H2(10)=C2H4(7)+HJ(4)                       8.980e+12 	 0.00 	 10.30 	!H_Abstraction estimate: (Average:)  [ InChI=1/C2H3/c1-2/h1H,2H2 , H2 ]
C2H3J(11)+HJ(4)=C2H4(7)                              1.210e+14 	 0.00 	 0.00 	!R_Recombination exact:   [ Cd_pri_rad , H_rad ]
C2H5J(3)+C2H3J(11)=C2H4(7)+C2H4(7)                   4.560e+14 	 -0.70 	 0.00 	!Disproportionation exact:   [ Cmethyl_Csrad , Cd_pri_rad ]
C2H2(25)+HJ(4)=C2H3J(11)                             2.320e+14 	 0.00 	 3.80 	!R_Addition_MultipleBond exact:   [ Ct/H_Ct/H , H_rad ]
C2H4(7)+C2H3J(11)=C4H7J(24)                          4.180e+13 	 0.00 	 5.20 	!R_Addition_MultipleBond exact:   [ Cd/H2_Cd/H2 , Cd_pri_rad ]
C4H7J(24)=C4H7J(59)                                  2.820e+08 	 1.28 	 27.90 	!intra_H_migration exact:   [ Others-R2H_S , C_rad_out_2H , Cs_H_out_H/OneDe ]
C2H3J(11)+C2H3J(11)=C4H6(28)                         7.230e+13 	 0.00 	 0.00 	!R_Recombination exact:   [ Cd_pri_rad , Cd_pri_rad ]
C4H6(28)+HJ(4)=C4H7J(24)                             5.700e+13 	 0.00 	 4.30 	!R_Addition_MultipleBond exact:   [ Cd/H/De_Cd/H2 , H_rad ]
CH3J(2)+C4H7J(24)=CH4(5)+C4H6(28)                    4.535e+12 	 -0.06 	 -0.00 	!Disproportionation estimate: (Average:)  [ C_methyl , C/H2/De_Csrad ]
C2H5J(3)+C4H7J(24)=C2H6(1)+C4H6(28)                  4.535e+12 	 -0.06 	 -0.00 	!Disproportionation estimate: (Average:)  [ C_rad/H2/Cs , C/H2/De_Csrad ]
HJ(4)+C4H7J(24)=H2(10)+C4H6(28)                      4.535e+12 	 -0.06 	 -0.00 	!Disproportionation estimate: (Average:)  [ H_rad , C/H2/De_Csrad ]
C2H3J(11)+C4H7J(24)=C2H4(7)+C4H6(28)                 4.535e+12 	 -0.06 	 -0.00 	!Disproportionation estimate: (Average:)  [ Cd_pri_rad , C/H2/De_Csrad ]
C4H6(28)+HJ(4)=C4H7J(59)                             7.420e+13 	 0.00 	 1.00 	!R_Addition_MultipleBond exact:   [ Cd/H2_Cd/H/De , H_rad ]
CH3J(2)+C4H7J(59)=CH4(5)+C4H6(28)                    6.570e+14 	 -0.68 	 0.00 	!Disproportionation exact:   [ C_methyl , Cmethyl_Csrad ]
C2H5J(3)+C4H7J(59)=C2H6(1)+C4H6(28)                  6.900e+13 	 -0.35 	 0.00 	!Disproportionation exact:   [ C_rad/H2/Cs , Cmethyl_Csrad ]
HJ(4)+C4H7J(59)=H2(10)+C4H6(28)                      1.083e+13 	 0.00 	 0.00 	!Disproportionation exact:   [ H_rad , Cmethyl_Csrad ]
C2H3J(11)+C4H7J(59)=C2H4(7)+C4H6(28)                 4.560e+14 	 -0.70 	 0.00 	!Disproportionation exact:   [ Cd_pri_rad , Cmethyl_Csrad ]
END
